
     RDKit          3D

 65 67  0  0  0  0  0  0  0  0999 V2000
    6.9596    1.4301    1.2036 C   0  0  0  0  0  0  0  0  0  0  0  0
    6.4999   -0.0268    1.1959 C   0  0  0  0  0  0  0  0  0  0  0  0
    6.1183   -0.5709   -0.1846 C   0  0  0  0  0  0  0  0  0  0  0  0
    4.6568   -0.3674   -0.5905 C   0  0  0  0  0  0  0  0  0  0  0  0
    4.3589    0.9126   -1.3992 C   0  0  0  0  0  0  0  0  0  0  0  0
    4.7820    2.2540   -0.7672 C   0  0  0  0  0  0  0  0  0  0  0  0
    4.5762    2.3749    0.7433 C   0  0  0  0  0  0  0  0  0  0  0  0
    5.8777    2.4575    1.5392 C   0  0  0  0  0  0  0  0  0  0  0  0
    2.9599    0.8866   -1.8622 N   0  0  0  0  0  0  0  0  0  0  0  0
    1.9383    1.1995   -0.8522 C   0  0  0  0  0  0  0  0  0  0  0  0
    0.5528    1.0066   -1.4871 C   0  0  0  0  0  0  0  0  0  0  0  0
    0.0857    1.8523   -2.2550 O   0  0  0  0  0  0  0  0  0  0  0  0
   -0.1239   -0.1567   -1.1819 N   0  0  0  0  0  0  0  0  0  0  0  0
    0.4718   -1.3715   -0.6557 C   0  0  0  0  0  0  0  0  0  0  0  0
   -0.3511   -2.4843   -1.2853 C   0  0  0  0  0  0  0  0  0  0  0  0
   -1.7402   -1.8688   -1.3802 C   0  0  0  0  0  0  0  0  0  0  0  0
   -1.4596   -0.4001   -1.7207 C   0  0  1  0  0  0  0  0  0  0  0  0
   -2.5551    0.4934   -1.1063 C   0  0  0  0  0  0  0  0  0  0  0  0
   -2.3764    1.2550   -0.1614 O   0  0  0  0  0  0  0  0  0  0  0  0
   -3.7940    0.3245   -1.7045 N   0  0  0  0  0  0  0  0  0  0  0  0
   -4.9755    0.9762   -1.1877 C   0  0  0  0  0  0  0  0  0  0  0  0
   -5.5746    0.1875   -0.0503 C   0  0  0  0  0  0  0  0  0  0  0  0
   -5.3690    0.6025    1.2748 C   0  0  0  0  0  0  0  0  0  0  0  0
   -5.8718   -0.1457    2.3397 C   0  0  0  0  0  0  0  0  0  0  0  0
   -6.5689   -1.3300    2.0861 C   0  0  0  0  0  0  0  0  0  0  0  0
   -6.7847   -1.7537    0.7723 C   0  0  0  0  0  0  0  0  0  0  0  0
   -6.2888   -0.9970   -0.2925 C   0  0  0  0  0  0  0  0  0  0  0  0
   -7.0621   -2.1418    3.2266 C   0  0  0  0  0  0  0  0  0  0  0  0
   -6.9770   -3.4349    3.2443 N   0  0  0  0  0  0  0  0  0  0  0  0
   -7.6178   -1.5325    4.3102 N   0  0  0  0  0  0  0  0  0  0  0  0
    7.7419    1.5356    1.9677 H   0  0  0  0  0  0  0  0  0  0  0  0
    7.4485    1.6834    0.2574 H   0  0  0  0  0  0  0  0  0  0  0  0
    5.7042   -0.2001    1.9277 H   0  0  0  0  0  0  0  0  0  0  0  0
    7.3532   -0.6264    1.5399 H   0  0  0  0  0  0  0  0  0  0  0  0
    6.2757   -1.6574   -0.1357 H   0  0  0  0  0  0  0  0  0  0  0  0
    6.8033   -0.2075   -0.9601 H   0  0  0  0  0  0  0  0  0  0  0  0
    4.0107   -0.4568    0.2903 H   0  0  0  0  0  0  0  0  0  0  0  0
    4.3868   -1.2210   -1.2297 H   0  0  0  0  0  0  0  0  0  0  0  0
    4.9463    0.8266   -2.3238 H   0  0  0  0  0  0  0  0  0  0  0  0
    4.2270    3.0639   -1.2597 H   0  0  0  0  0  0  0  0  0  0  0  0
    5.8237    2.4578   -1.0340 H   0  0  0  0  0  0  0  0  0  0  0  0
    3.9570    1.5651    1.1397 H   0  0  0  0  0  0  0  0  0  0  0  0
    4.0080    3.2923    0.9469 H   0  0  0  0  0  0  0  0  0  0  0  0
    6.3078    3.4583    1.4052 H   0  0  0  0  0  0  0  0  0  0  0  0
    5.6323    2.3774    2.6061 H   0  0  0  0  0  0  0  0  0  0  0  0
    2.8420    1.5539   -2.6294 H   0  0  0  0  0  0  0  0  0  0  0  0
    1.9974    2.2415   -0.5218 H   0  0  0  0  0  0  0  0  0  0  0  0
    2.0337    0.5671    0.0310 H   0  0  0  0  0  0  0  0  0  0  0  0
    1.5313   -1.4596   -0.9140 H   0  0  0  0  0  0  0  0  0  0  0  0
    0.3583   -1.3580    0.4355 H   0  0  0  0  0  0  0  0  0  0  0  0
    0.0233   -2.7036   -2.2942 H   0  0  0  0  0  0  0  0  0  0  0  0
   -0.3312   -3.4117   -0.7042 H   0  0  0  0  0  0  0  0  0  0  0  0
   -2.3583   -2.3591   -2.1396 H   0  0  0  0  0  0  0  0  0  0  0  0
   -2.2528   -1.9676   -0.4127 H   0  0  0  0  0  0  0  0  0  0  0  0
   -1.4273   -0.2442   -2.8039 H   0  0  0  0  0  0  0  0  0  0  0  0
   -3.9176   -0.4046   -2.3909 H   0  0  0  0  0  0  0  0  0  0  0  0
   -4.7246    1.9951   -0.8705 H   0  0  0  0  0  0  0  0  0  0  0  0
   -5.6975    1.0564   -2.0075 H   0  0  0  0  0  0  0  0  0  0  0  0
   -4.7947    1.5059    1.4823 H   0  0  0  0  0  0  0  0  0  0  0  0
   -5.6789    0.1740    3.3599 H   0  0  0  0  0  0  0  0  0  0  0  0
   -7.3480   -2.6602    0.5694 H   0  0  0  0  0  0  0  0  0  0  0  0
   -6.4601   -1.3370   -1.3114 H   0  0  0  0  0  0  0  0  0  0  0  0
   -6.5006   -3.7787    2.4057 H   0  0  0  0  0  0  0  0  0  0  0  0
   -8.0695   -2.2082    4.9205 H   0  0  0  0  0  0  0  0  0  0  0  0
   -8.1987   -0.7238    4.1176 H   0  0  0  0  0  0  0  0  0  0  0  0
  1  2  1  0
  2  3  1  0
  3  4  1  0
  4  5  1  0
  5  6  1  0
  6  7  1  0
  7  8  1  0
  5  9  1  0
  9 10  1  0
 10 11  1  0
 11 12  2  0
 11 13  1  0
 13 14  1  0
 14 15  1  0
 15 16  1  0
 16 17  1  0
 17 18  1  0
 18 19  2  0
 18 20  1  0
 20 21  1  0
 21 22  1  0
 22 23  2  0
 23 24  1  0
 24 25  2  0
 25 26  1  0
 26 27  2  0
 25 28  1  0
 28 29  2  3
 28 30  1  0
  8  1  1  0
 17 13  1  0
 27 22  1  0
  1 31  1  0
  1 32  1  0
  2 33  1  0
  2 34  1  0
  3 35  1  0
  3 36  1  0
  4 37  1  0
  4 38  1  0
  5 39  1  0
  6 40  1  0
  6 41  1  0
  7 42  1  0
  7 43  1  0
  8 44  1  0
  8 45  1  0
  9 46  1  0
 10 47  1  0
 10 48  1  0
 14 49  1  0
 14 50  1  0
 15 51  1  0
 15 52  1  0
 16 53  1  0
 16 54  1  0
 17 55  1  6
 20 56  1  0
 21 57  1  0
 21 58  1  0
 23 59  1  0
 24 60  1  0
 26 61  1  0
 27 62  1  0
 29 63  1  0
 30 64  1  0
 30 65  1  0
M  END

