
     RDKit          3D

 64 66  0  0  0  0  0  0  0  0999 V2000
   -7.6092    0.7855    1.0436 C   0  0  0  0  0  0  0  0  0  0  0  0
   -7.0652    1.2182    2.4036 C   0  0  0  0  0  0  0  0  0  0  0  0
   -5.5642    1.4834    2.4976 C   0  0  0  0  0  0  0  0  0  0  0  0
   -4.6665    0.3167    2.0875 C   0  0  0  0  0  0  0  0  0  0  0  0
   -4.1163    0.4001    0.6452 C   0  0  0  0  0  0  0  0  0  0  0  0
   -5.0948   -0.1581   -0.4068 C   0  0  0  0  0  0  0  0  0  0  0  0
   -6.0796    0.8356   -1.0299 C   0  0  0  0  0  0  0  0  0  0  0  0
   -7.0532    1.5901   -0.1266 C   0  0  0  0  0  0  0  0  0  0  0  0
   -2.9110   -0.4472    0.5283 N   0  0  0  0  0  0  0  0  0  0  0  0
   -1.6955    0.2066    1.0383 C   0  0  0  0  0  0  0  0  0  0  0  0
   -0.4953   -0.7079    0.7680 C   0  0  0  0  0  0  0  0  0  0  0  0
   -0.2141   -1.6306    1.5390 O   0  0  0  0  0  0  0  0  0  0  0  0
    0.2370   -0.4743   -0.3746 N   0  0  0  0  0  0  0  0  0  0  0  0
   -0.1687    0.3332   -1.5125 C   0  0  0  0  0  0  0  0  0  0  0  0
    0.4714   -0.3659   -2.7019 C   0  0  0  0  0  0  0  0  0  0  0  0
    1.7679   -0.9181   -2.1238 C   0  0  0  0  0  0  0  0  0  0  0  0
    1.3854   -1.3119   -0.6927 C   0  0  1  0  0  0  0  0  0  0  0  0
    2.5826   -1.0586    0.2439 C   0  0  0  0  0  0  0  0  0  0  0  0
    2.7715    0.0052    0.8320 O   0  0  0  0  0  0  0  0  0  0  0  0
    3.4821   -2.1111    0.2778 N   0  0  0  0  0  0  0  0  0  0  0  0
    4.6573   -2.0535    1.1173 C   0  0  0  0  0  0  0  0  0  0  0  0
    5.7645   -1.2623    0.4784 C   0  0  0  0  0  0  0  0  0  0  0  0
    6.2764   -1.6124   -0.7700 C   0  0  0  0  0  0  0  0  0  0  0  0
    7.2651   -0.9452   -1.4060 N   0  0  0  0  0  0  0  0  0  0  0  0
    7.7711    0.1439   -0.7640 C   0  0  0  0  0  0  0  0  0  0  0  0
    7.3437    0.5692    0.4872 C   0  0  0  0  0  0  0  0  0  0  0  0
    6.3253   -0.1491    1.1139 C   0  0  0  0  0  0  0  0  0  0  0  0
    8.8548    0.8601   -1.5290 C   0  0  0  0  0  0  0  0  0  0  0  0
    9.2380    2.0791   -1.3005 N   0  0  0  0  0  0  0  0  0  0  0  0
    9.4599    0.2026   -2.5647 N   0  0  0  0  0  0  0  0  0  0  0  0
   -7.4690   -0.2907    0.9043 H   0  0  0  0  0  0  0  0  0  0  0  0
   -8.6986    0.9307    1.0715 H   0  0  0  0  0  0  0  0  0  0  0  0
   -7.5828    2.1374    2.7074 H   0  0  0  0  0  0  0  0  0  0  0  0
   -7.3455    0.4604    3.1467 H   0  0  0  0  0  0  0  0  0  0  0  0
   -5.2904    2.3952    1.9565 H   0  0  0  0  0  0  0  0  0  0  0  0
   -5.3568    1.7079    3.5534 H   0  0  0  0  0  0  0  0  0  0  0  0
   -3.8230    0.3403    2.7868 H   0  0  0  0  0  0  0  0  0  0  0  0
   -5.1655   -0.6433    2.2655 H   0  0  0  0  0  0  0  0  0  0  0  0
   -3.8571    1.4328    0.3811 H   0  0  0  0  0  0  0  0  0  0  0  0
   -5.6279   -1.0335   -0.0114 H   0  0  0  0  0  0  0  0  0  0  0  0
   -4.5175   -0.5474   -1.2601 H   0  0  0  0  0  0  0  0  0  0  0  0
   -5.5175    1.5708   -1.6183 H   0  0  0  0  0  0  0  0  0  0  0  0
   -6.6733    0.2716   -1.7620 H   0  0  0  0  0  0  0  0  0  0  0  0
   -6.6079    2.5327    0.2034 H   0  0  0  0  0  0  0  0  0  0  0  0
   -7.8993    1.8901   -0.7567 H   0  0  0  0  0  0  0  0  0  0  0  0
   -3.0398   -1.3199    1.0427 H   0  0  0  0  0  0  0  0  0  0  0  0
   -1.7453    0.3617    2.1219 H   0  0  0  0  0  0  0  0  0  0  0  0
   -1.5357    1.1873    0.5777 H   0  0  0  0  0  0  0  0  0  0  0  0
    0.2440    1.3373   -1.3686 H   0  0  0  0  0  0  0  0  0  0  0  0
   -1.2541    0.3991   -1.6118 H   0  0  0  0  0  0  0  0  0  0  0  0
   -0.1642   -1.1951   -3.0356 H   0  0  0  0  0  0  0  0  0  0  0  0
    0.6341    0.3048   -3.5504 H   0  0  0  0  0  0  0  0  0  0  0  0
    2.1553   -1.7684   -2.6968 H   0  0  0  0  0  0  0  0  0  0  0  0
    2.5381   -0.1379   -2.1277 H   0  0  0  0  0  0  0  0  0  0  0  0
    1.0726   -2.3605   -0.6353 H   0  0  0  0  0  0  0  0  0  0  0  0
    3.1406   -3.0231    0.0075 H   0  0  0  0  0  0  0  0  0  0  0  0
    4.3776   -1.6330    2.0892 H   0  0  0  0  0  0  0  0  0  0  0  0
    4.9983   -3.0809    1.2872 H   0  0  0  0  0  0  0  0  0  0  0  0
    5.8891   -2.4694   -1.3140 H   0  0  0  0  0  0  0  0  0  0  0  0
    7.7783    1.4267    0.9834 H   0  0  0  0  0  0  0  0  0  0  0  0
    5.9627    0.1707    2.0921 H   0  0  0  0  0  0  0  0  0  0  0  0
    8.7161    2.5101   -0.5341 H   0  0  0  0  0  0  0  0  0  0  0  0
    8.8742   -0.5245   -2.9714 H   0  0  0  0  0  0  0  0  0  0  0  0
    9.8696    0.8369   -3.2383 H   0  0  0  0  0  0  0  0  0  0  0  0
  1  2  1  0
  2  3  1  0
  3  4  1  0
  4  5  1  0
  5  6  1  0
  6  7  1  0
  7  8  1  0
  5  9  1  0
  9 10  1  0
 10 11  1  0
 11 12  2  0
 11 13  1  0
 13 14  1  0
 14 15  1  0
 15 16  1  0
 16 17  1  0
 17 18  1  0
 18 19  2  0
 18 20  1  0
 20 21  1  0
 21 22  1  0
 22 23  2  0
 23 24  1  0
 24 25  2  0
 25 26  1  0
 26 27  2  0
 25 28  1  0
 28 29  2  3
 28 30  1  0
  8  1  1  0
 17 13  1  0
 27 22  1  0
  1 31  1  0
  1 32  1  0
  2 33  1  0
  2 34  1  0
  3 35  1  0
  3 36  1  0
  4 37  1  0
  4 38  1  0
  5 39  1  0
  6 40  1  0
  6 41  1  0
  7 42  1  0
  7 43  1  0
  8 44  1  0
  8 45  1  0
  9 46  1  0
 10 47  1  0
 10 48  1  0
 14 49  1  0
 14 50  1  0
 15 51  1  0
 15 52  1  0
 16 53  1  0
 16 54  1  0
 17 55  1  6
 20 56  1  0
 21 57  1  0
 21 58  1  0
 23 59  1  0
 26 60  1  0
 27 61  1  0
 29 62  1  0
 30 63  1  0
 30 64  1  0
M  END

